Version 4
SHEET 1 880 680
WIRE 128 -16 80 -16
WIRE 224 -16 192 -16
WIRE 80 80 80 -16
WIRE 128 80 80 80
WIRE 224 80 224 -16
WIRE 224 80 208 80
WIRE 160 96 -176 96
WIRE 16 112 -64 112
WIRE 80 112 80 80
WIRE 80 112 16 112
WIRE 160 144 160 96
WIRE 80 160 80 112
WIRE 128 160 80 160
WIRE 224 176 224 80
WIRE 224 176 192 176
WIRE 16 192 -64 192
WIRE 128 192 16 192
WIRE 160 224 160 208
FLAG 160 224 0
FLAG -176 176 0
SYMBOL cap 128 0 R270
WINDOW 0 32 32 VTop 2
WINDOW 3 0 32 VBottom 2
SYMATTR InstName C3
SYMATTR Value 2p2
SYMBOL res 112 96 R270
WINDOW 0 32 56 VTop 2
WINDOW 3 0 56 VBottom 2
SYMATTR InstName R3
SYMATTR Value 500k
SYMBOL voltage -176 80 R0
WINDOW 123 0 0 Left 2
WINDOW 39 0 0 Left 2
SYMATTR InstName V1
SYMATTR Value 5
SYMBOL current 16 112 R0
WINDOW 123 0 0 Left 2
WINDOW 39 0 0 Left 2
SYMATTR InstName I1
SYMATTR Value 100µA
SYMBOL current -64 112 R0
WINDOW 3 -33 130 Left 2
WINDOW 123 0 0 Left 2
WINDOW 39 0 0 Left 2
SYMATTR Value PULSE(0 100u 0 1u 1u 500u 1m)
SYMATTR InstName I2
SYMBOL Opamps\\UniversalOpamp2 160 176 R0
SYMATTR InstName U1
TEXT -210 262 Left 2 !.tran 50m
